@<TRIPOS>MOLECULE
MOL
  105   110     1     0     0
SMALL
No Charge or Current Charge


@<TRIPOS>ATOM
      1 C37         -3.0410    -3.0000     3.6130 c3         1 MOL       0.000000
      2 H23         -2.0060    -2.6520     3.7850 h1         1 MOL       0.000000
      3 H24         -3.0610    -4.1010     3.6970 h1         1 MOL       0.000000
      4 H43         -3.6920    -2.5720     4.3870 h1         1 MOL       0.000000
      5 O3          -3.5460    -2.5590     2.3710 os         1 MOL       0.000000
      6 C16         -2.9370    -2.9750     1.2170 ca         1 MOL       0.000000
      7 C14         -1.7890    -3.7800     1.1960 ca         1 MOL       0.000000
      8 H6          -1.3160    -4.0940     2.1260 ha         1 MOL       0.000000
      9 C19         -1.1920    -4.1820    -0.0060 ca         1 MOL       0.000000
     10 C29          0.0890    -5.0010    -0.0020 c3         1 MOL       0.000000
     11 H12          0.0960    -5.6480     0.8860 hc         1 MOL       0.000000
     12 H13          0.1040    -5.6470    -0.8910 hc         1 MOL       0.000000
     13 C22         -1.7850    -3.7710    -1.2170 ca         1 MOL       0.000000
     14 O8          -1.1810    -4.1940    -2.3710 os         1 MOL       0.000000
     15 C42         -1.7630    -3.8630    -3.6140 c3         1 MOL       0.000000
     16 H33         -1.7900    -2.7720    -3.7790 h1         1 MOL       0.000000
     17 H34         -2.7900    -4.2600    -3.7050 h1         1 MOL       0.000000
     18 H46         -1.1330    -4.3240    -4.3870 h1         1 MOL       0.000000
     19 C30         -2.9340    -2.9690    -1.1960 ca         1 MOL       0.000000
     20 H14         -3.3890    -2.6280    -2.1250 ha         1 MOL       0.000000
     21 C20         -3.5220    -2.5530     0.0060 ca         1 MOL       0.000000
     22 C31         -4.7300    -1.6300     0.0020 c3         1 MOL       0.000000
     23 H15         -5.3400    -1.8440    -0.8860 hc         1 MOL       0.000000
     24 H16         -5.3420    -1.8370     0.8910 hc         1 MOL       0.000000
     25 C23         -4.3470    -0.1580    -0.0020 ca         1 MOL       0.000000
     26 C34         -4.1390     0.5310     1.2000 ca         1 MOL       0.000000
     27 C33         -3.7280     1.8710     1.2200 ca         1 MOL       0.000000
     28 O10         -3.5110     2.5760     2.3740 os         1 MOL       0.000000
     29 C45         -3.7620     1.9560     3.6170 c3         1 MOL       0.000000
     30 H39         -4.8140     1.6350     3.7110 h1         1 MOL       0.000000
     31 H40         -3.1100     1.0790     3.7800 h1         1 MOL       0.000000
     32 H42         -3.5480     2.7060     4.3910 h1         1 MOL       0.000000
     33 H18         -4.2840    -0.0180     2.1290 ha         1 MOL       0.000000
     34 C25         -4.1500     0.5350    -1.2130 ca         1 MOL       0.000000
     35 O9          -4.3750    -0.1670    -2.3670 os         1 MOL       0.000000
     36 C44         -4.2530     0.4910    -3.6090 c3         1 MOL       0.000000
     37 H37         -3.2250     0.8560    -3.7840 h1         1 MOL       0.000000
     38 H38         -4.9490     1.3460    -3.6910 h1         1 MOL       0.000000
     39 H50         -4.5040    -0.2470    -4.3830 h1         1 MOL       0.000000
     40 C32         -3.7410     1.8760    -1.1930 ca         1 MOL       0.000000
     41 H17         -3.5650     2.4150    -2.1230 ha         1 MOL       0.000000
     42 C21         -3.5160     2.5600     0.0090 ca         1 MOL       0.000000
     43 C35         -3.0120     3.9950     0.0040 c3         1 MOL       0.000000
     44 H19         -3.3960     4.5130     0.8930 hc         1 MOL       0.000000
     45 H20         -3.4050     4.5080    -0.8840 hc         1 MOL       0.000000
     46 C24         -1.4940     4.0850    -0.0030 ca         1 MOL       0.000000
     47 C28         -0.7720     4.1070     1.1980 ca         1 MOL       0.000000
     48 C17          0.6300     4.1310     1.2160 ca         1 MOL       0.000000
     49 O6           1.3690     4.1500     2.3680 os         1 MOL       0.000000
     50 C43          0.7040     4.2060     3.6120 c3         1 MOL       0.000000
     51 H35          0.0720     3.3160     3.7820 h1         1 MOL       0.000000
     52 H36          0.0730     5.1080     3.7000 h1         1 MOL       0.000000
     53 H41          1.4840     4.2400     4.3840 h1         1 MOL       0.000000
     54 H11         -1.3380     4.0820     2.1280 ha         1 MOL       0.000000
     55 C18         -0.7750     4.1040    -1.2150 ca         1 MOL       0.000000
     56 O7          -1.5150     4.0940    -2.3680 os         1 MOL       0.000000
     57 C40         -0.8520     4.1710    -3.6120 c3         1 MOL       0.000000
     58 H29         -0.1890     3.3040    -3.7800 h1         1 MOL       0.000000
     59 H30         -0.2530     5.0950    -3.7020 h1         1 MOL       0.000000
     60 H49         -1.6330     4.1770    -4.3840 h1         1 MOL       0.000000
     61 C10          0.6260     4.1290    -1.1970 ca         1 MOL       0.000000
     62 H4           1.1930     4.1220    -2.1280 ha         1 MOL       0.000000
     63 C3           1.3480     4.1350     0.0030 ca         1 MOL       0.000000
     64 C27          2.8680     4.0980    -0.0030 c3         1 MOL       0.000000
     65 H9           3.2430     4.6260     0.8840 hc         1 MOL       0.000000
     66 H10          3.2340     4.6290    -0.8930 hc         1 MOL       0.000000
     67 C11          3.4230     2.6820    -0.0080 ca         1 MOL       0.000000
     68 C12          3.6690     2.0060     1.1940 ca         1 MOL       0.000000
     69 C6           4.1250     0.6800     1.2140 ca         1 MOL       0.000000
     70 O2           4.3720    -0.0150     2.3680 os         1 MOL       0.000000
     71 C39          4.2220     0.6380     3.6110 c3         1 MOL       0.000000
     72 H27          3.1800     0.9640     3.7820 h1         1 MOL       0.000000
     73 H28          4.8850     1.5160     3.6960 h1         1 MOL       0.000000
     74 H45          4.4960    -0.0920     4.3840 h1         1 MOL       0.000000
     75 H5           3.4710     2.5380     2.1230 ha         1 MOL       0.000000
     76 C8           3.6620     2.0030    -1.2190 ca         1 MOL       0.000000
     77 O4           3.4220     2.7000    -2.3730 os         1 MOL       0.000000
     78 C38          3.7000     2.0910    -3.6160 c3         1 MOL       0.000000
     79 H25          4.7640     1.8080    -3.7060 h1         1 MOL       0.000000
     80 H26          3.0810     1.1920    -3.7820 h1         1 MOL       0.000000
     81 H48          3.4630     2.8340    -4.3890 h1         1 MOL       0.000000
     82 C9           4.1200     0.6780    -1.1990 ca         1 MOL       0.000000
     83 H3           4.2880     0.1350    -2.1280 ha         1 MOL       0.000000
     84 C4           4.3500    -0.0050     0.0030 ca         1 MOL       0.000000
     85 C26          4.7850    -1.4620    -0.0010 c3         1 MOL       0.000000
     86 H7           5.4040    -1.6470    -0.8890 hc         1 MOL       0.000000
     87 H8           5.4010    -1.6540     0.8880 hc         1 MOL       0.000000
     88 C1           3.6100    -2.4270    -0.0060 ca         1 MOL       0.000000
     89 C2           3.0380    -2.8660     1.1960 ca         1 MOL       0.000000
     90 H1           3.4810    -2.5100     2.1250 ha         1 MOL       0.000000
     91 C13          1.9180    -3.7090     1.2150 ca         1 MOL       0.000000
     92 O5           1.3300    -4.1540     2.3680 os         1 MOL       0.000000
     93 C41          1.8990    -3.8040     3.6120 c3         1 MOL       0.000000
     94 H31          2.9400    -4.1640     3.7020 h1         1 MOL       0.000000
     95 H32          1.8880    -2.7130     3.7790 h1         1 MOL       0.000000
     96 H44          1.2870    -4.2880     4.3850 h1         1 MOL       0.000000
     97 C15          1.3400    -4.1380     0.0040 ca         1 MOL       0.000000
     98 C7           1.9220    -3.7130    -1.1980 ca         1 MOL       0.000000
     99 H2           1.4610    -4.0430    -2.1280 ha         1 MOL       0.000000
    100 C5           3.0410    -2.8680    -1.2180 ca         1 MOL       0.000000
    101 O1           3.6340    -2.4290    -2.3710 os         1 MOL       0.000000
    102 C36          3.1450    -2.8860    -3.6140 c3         1 MOL       0.000000
    103 H21          3.2040    -3.9860    -3.6990 h1         1 MOL       0.000000
    104 H22          2.0990    -2.5750    -3.7850 h1         1 MOL       0.000000
    105 H47          3.7810    -2.4340    -4.3870 h1         1 MOL       0.000000
@<TRIPOS>BOND
     1     1     2 1   
     2     1     3 1   
     3     1     4 1   
     4     1     5 1   
     5     5     6 1   
     6     6     7 ar  
     7     6    21 ar  
     8     7     8 1   
     9     7     9 ar  
    10     9    10 1   
    11     9    13 ar  
    12    10    11 1   
    13    10    12 1   
    14    10    97 1   
    15    13    14 1   
    16    13    19 ar  
    17    14    15 1   
    18    15    16 1   
    19    15    17 1   
    20    15    18 1   
    21    19    20 1   
    22    19    21 ar  
    23    21    22 1   
    24    22    23 1   
    25    22    24 1   
    26    22    25 1   
    27    25    26 ar  
    28    25    34 ar  
    29    26    27 ar  
    30    26    33 1   
    31    27    28 1   
    32    27    42 ar  
    33    28    29 1   
    34    29    30 1   
    35    29    31 1   
    36    29    32 1   
    37    34    35 1   
    38    34    40 ar  
    39    35    36 1   
    40    36    37 1   
    41    36    38 1   
    42    36    39 1   
    43    40    41 1   
    44    40    42 ar  
    45    42    43 1   
    46    43    44 1   
    47    43    45 1   
    48    43    46 1   
    49    46    47 ar  
    50    46    55 ar  
    51    47    48 ar  
    52    47    54 1   
    53    48    49 1   
    54    48    63 ar  
    55    49    50 1   
    56    50    51 1   
    57    50    52 1   
    58    50    53 1   
    59    55    56 1   
    60    55    61 ar  
    61    56    57 1   
    62    57    58 1   
    63    57    59 1   
    64    57    60 1   
    65    61    62 1   
    66    61    63 ar  
    67    63    64 1   
    68    64    65 1   
    69    64    66 1   
    70    64    67 1   
    71    67    68 ar  
    72    67    76 ar  
    73    68    69 ar  
    74    68    75 1   
    75    69    70 1   
    76    69    84 ar  
    77    70    71 1   
    78    71    72 1   
    79    71    73 1   
    80    71    74 1   
    81    76    77 1   
    82    76    82 ar  
    83    77    78 1   
    84    78    79 1   
    85    78    80 1   
    86    78    81 1   
    87    82    83 1   
    88    82    84 ar  
    89    84    85 1   
    90    85    86 1   
    91    85    87 1   
    92    85    88 1   
    93    88    89 ar  
    94    88   100 ar  
    95    89    90 1   
    96    89    91 ar  
    97    91    92 1   
    98    91    97 ar  
    99    92    93 1   
   100    93    94 1   
   101    93    95 1   
   102    93    96 1   
   103    97    98 ar  
   104    98    99 1   
   105    98   100 ar  
   106   100   101 1   
   107   101   102 1   
   108   102   103 1   
   109   102   104 1   
   110   102   105 1   
@<TRIPOS>SUBSTRUCTURE
     1 MOL         1 TEMP              0 ****  ****    0 ROOT
