@<TRIPOS>MOLECULE
MOH
    6     5     1     0     0
SMALL
bcc


@<TRIPOS>ATOM
      1 C1           0.0000     0.0000     0.0000 c3         1 MOH       0.116700
      2 O1           1.4300     0.0000     0.0000 oh         1 MOH      -0.598800
      3 H1          -0.3630     1.0280     0.0000 h1         1 MOH       0.028700
      4 H2          -0.3630    -0.5140     0.8900 h1         1 MOH       0.028700
      5 H3          -0.3630    -0.5140    -0.8900 h1         1 MOH       0.028700
      6 HO           1.8000     0.8000     0.0000 ho         1 MOH       0.396000
@<TRIPOS>BOND
     1     1     2 1   
     2     1     3 1   
     3     1     4 1   
     4     1     5 1   
     5     2     6 1   
@<TRIPOS>SUBSTRUCTURE
     1 MOH         1 TEMP              0 ****  ****    0 ROOT
