@<TRIPOS>MOLECULE
EGL
   10     9     1     0     0
SMALL
bcc


@<TRIPOS>ATOM
      1 O1          -2.2300     0.0900     0.0000 oh         1 EGL      -0.590800
      2 H1          -2.8200    -0.6700     0.0000 ho         1 EGL       0.399000
      3 C1          -0.8500    -0.2400     0.0000 c3         1 EGL       0.088400
      4 H2          -0.7300    -1.3300     0.0000 h1         1 EGL       0.051700
      5 H3          -0.4300     0.1500     0.9300 h1         1 EGL       0.051700
      6 C2           0.0000     0.4200    -1.0800 c3         1 EGL       0.088400
      7 H4          -0.4400     0.0300    -2.0000 h1         1 EGL       0.051700
      8 H5           0.1000     1.5100    -1.0800 h1         1 EGL       0.051700
      9 O2           1.3300    -0.0900    -1.0000 oh         1 EGL      -0.590800
     10 H6           1.9000     0.6800    -1.0000 ho         1 EGL       0.399000
@<TRIPOS>BOND
     1     1     2 1   
     2     1     3 1   
     3     3     4 1   
     4     3     5 1   
     5     3     6 1   
     6     6     7 1   
     7     6     8 1   
     8     6     9 1   
     9     9    10 1   
@<TRIPOS>SUBSTRUCTURE
     1 EGL         1 TEMP              0 ****  ****    0 ROOT
