@<TRIPOS>MOLECULE
DCM
    5     4     1     0     0
SMALL
bcc


@<TRIPOS>ATOM
      1 C1           0.0000     0.0000     0.0000 c3         1 DCM       0.122400
      2 CL1          1.7800     0.0000     0.0000 cl         1 DCM      -0.150400
      3 CL2         -0.8900     1.5400     0.0000 cl         1 DCM      -0.150400
      4 H1          -0.8900    -0.5100     0.8900 h2         1 DCM       0.089700
      5 H2          -0.8900    -0.5100    -0.8900 h2         1 DCM       0.089700
@<TRIPOS>BOND
     1     1     2 1   
     2     1     3 1   
     3     1     4 1   
     4     1     5 1   
@<TRIPOS>SUBSTRUCTURE
     1 DCM         1 TEMP              0 ****  ****    0 ROOT
