@<TRIPOS>MOLECULE
ACE
   10     9     1     0     0
SMALL
bcc


@<TRIPOS>ATOM
      1 C1           0.0000     0.0000     0.0000 c          1 ACE       0.566100
      2 O1           1.2200     0.0000     0.0000 o          1 ACE      -0.540100
      3 C2          -0.7600     1.2300     0.0000 c3         1 ACE      -0.203100
      4 C3          -0.7600    -1.2300     0.0000 c3         1 ACE      -0.203100
      5 H1          -1.8500     1.2000     0.0000 hc         1 ACE       0.063367
      6 H2          -0.3800     2.1500     0.8900 hc         1 ACE       0.063367
      7 H3          -0.3800     2.1500    -0.8900 hc         1 ACE       0.063367
      8 H4          -1.8500    -1.2000     0.0000 hc         1 ACE       0.063367
      9 H5          -0.3800    -2.1500     0.8900 hc         1 ACE       0.063367
     10 H6          -0.3800    -2.1500    -0.8900 hc         1 ACE       0.063367
@<TRIPOS>BOND
     1     1     2 2   
     2     1     3 1   
     3     1     4 1   
     4     3     5 1   
     5     3     6 1   
     6     3     7 1   
     7     4     8 1   
     8     4     9 1   
     9     4    10 1   
@<TRIPOS>SUBSTRUCTURE
     1 ACE         1 TEMP              0 ****  ****    0 ROOT
