@<TRIPOS>MOLECULE
CLF
    5     4     1     0     0
SMALL
bcc


@<TRIPOS>ATOM
      1 C1           0.0000     0.0000     0.0000 c3         1 CLF       0.223500
      2 CL1          1.7600     0.0000     0.0000 cl         1 CLF      -0.114400
      3 CL2         -0.5870     1.6600     0.0000 cl         1 CLF      -0.114400
      4 CL3         -0.5870    -0.8300     1.4380 cl         1 CLF      -0.114400
      5 H1          -0.5870    -0.8300    -1.0170 h3         1 CLF       0.118700
@<TRIPOS>BOND
     1     1     2 1   
     2     1     3 1   
     3     1     4 1   
     4     1     5 1   
@<TRIPOS>SUBSTRUCTURE
     1 CLF         1 TEMP              0 ****  ****    0 ROOT
