@<TRIPOS>MOLECULE
ACN
    6     5     1     0     0
SMALL
bcc


@<TRIPOS>ATOM
      1 C1           0.0000     0.0000     0.0000 c3         1 ACN      -0.045000
      2 C2           1.4580     0.0000     0.0000 c1         1 ACN       0.208700
      3 N1           2.6150     0.0000     0.0000 n1         1 ACN      -0.375800
      4 H1          -0.3630     1.0280     0.0000 hc         1 ACN       0.070700
      5 H2          -0.3630    -0.5140     0.8900 hc         1 ACN       0.070700
      6 H3          -0.3630    -0.5140    -0.8900 hc         1 ACN       0.070700
@<TRIPOS>BOND
     1     1     2 1   
     2     1     4 1   
     3     1     5 1   
     4     1     6 1   
     5     2     3 3   
@<TRIPOS>SUBSTRUCTURE
     1 ACN         1 TEMP              0 ****  ****    0 ROOT
