@<TRIPOS>MOLECULE
GLY
   14    13     1     0     0
SMALL
bcc


@<TRIPOS>ATOM
      1 O1          -2.5500     0.1500     0.0000 oh         1 GLY      -0.611800
      2 H1          -3.1000    -0.6500     0.0000 ho         1 GLY       0.411000
      3 C1          -1.1500    -0.1000     0.0000 c3         1 GLY       0.099900
      4 H2          -0.9500    -1.1800     0.0000 h1         1 GLY       0.049200
      5 H3          -0.8000     0.3000     0.9400 h1         1 GLY       0.049200
      6 C2           0.0000     0.6500    -0.8000 c3         1 GLY       0.104100
      7 H4          -0.3500     1.6900    -0.8000 h1         1 GLY       0.082700
      8 O2           1.2500     0.6500    -0.1500 oh         1 GLY      -0.595800
      9 H5           1.8500     1.3800    -0.3500 ho         1 GLY       0.413000
     10 C3           0.1000     0.2500    -2.3000 c3         1 GLY       0.099900
     11 H6          -0.8500     0.1500    -2.8300 h1         1 GLY       0.049200
     12 H7           0.6500    -0.7000    -2.4000 h1         1 GLY       0.049200
     13 O3           0.9000     1.3000    -2.9000 oh         1 GLY      -0.611800
     14 H8           1.7000     1.0500    -3.3500 ho         1 GLY       0.411000
@<TRIPOS>BOND
     1     1     2 1   
     2     1     3 1   
     3     3     4 1   
     4     3     5 1   
     5     3     6 1   
     6     6     7 1   
     7     6     8 1   
     8     6    10 1   
     9     8     9 1   
    10    10    11 1   
    11    10    12 1   
    12    10    13 1   
    13    13    14 1   
@<TRIPOS>SUBSTRUCTURE
     1 GLY         1 TEMP              0 ****  ****    0 ROOT
